Hello, Git!

New line.

Added another line.
